192
Lattice="12.4244 0.0 0.0 0.0 12.4244 0.0 0.0 0.0 12.4244" Properties=species:S:1:pos:R:3 ipi_comment="Step:        1900  Bead:       0 positions{ase}  cell{ase}" pbc="T T T"
O        2.21387327      12.40725068       2.23031948
H        2.06694404      11.67860309       1.64454197
H        1.31318334      12.80514770       2.28237999
O       -0.75321508      -0.59448153      -1.04435843
H       -0.43690708       0.32900852      -1.04657525
H       -0.57971040      -0.98114653      -1.94412965
O        5.74154040      -0.87984718       0.72588630
H        6.39142623      -1.27091020       0.15466910
H        4.95746147      -0.84286870       0.17858963
O       11.99198992      13.45036196       2.41825677
H       11.37275732      12.74729899       2.49935612
H       11.89932759      14.00247471       1.54806628
O       11.93044048       1.05488399      -3.73314299
H       11.32455922       0.93150585      -4.46539255
H       12.65005178       0.53170032      -3.90569743
O       14.73647355       5.99191632      -7.05710376
H       14.64143925       5.03360348      -7.27737786
H       14.06733122       6.17072192      -6.37654095
O       -2.73217835      10.36158893       0.16191577
H       -2.06962320      10.93427055      -0.33139183
H       -2.51616800       9.45621753      -0.12184826
O        6.23846578       1.75374492       0.35639039
H        5.96089981       0.77730520       0.46453180
H        5.39628380       2.29054891       0.26418202
O        8.80269662       8.43566538       5.05023611
H        9.72832216       8.80499254       4.93842353
H        8.41177392       8.34800960       4.16677335
O        5.89328910       5.88414156      -1.14225059
H        6.07707839       5.68838338      -2.06445181
H        5.43934590       6.71987929      -1.04508996
O        7.84016011       2.70671541       2.39204316
H        7.20788308       3.26556062       2.89380271
H        7.32436176       2.27545437       1.68427297
O       11.00517380       5.32928124       3.72557263
H       10.29738407       5.10122268       2.99805211
H       10.47093006       5.51304477       4.52225686
O        2.68516096       2.41177930      -0.66463660
H        3.12947415       1.66826602      -1.03006854
H        3.27709683       2.85722501      -0.03548707
O        0.86065791       8.02193473      -3.37520070
H        1.11321946       7.81534106      -2.41395316
H        0.22218987       8.78231178      -3.28348522
O        5.85747567       0.46065763      -7.43414667
H        5.53128874       0.87653800      -6.61624733
H        6.70168137       0.85902635      -7.62984359
O        0.35921371       7.78272581       0.92779636
H        0.33955254       7.65595272       1.95023127
H       -0.57003051       7.61892999       0.59896908
O        9.66377080       4.68256823       1.55730430
H        8.94312649       3.99347302       1.59425106
H        9.12089025       5.41769479       1.22888925
O        7.65457008       9.64069496      -5.18343076
H        6.71889770      10.06399282      -5.36783785
H        7.86674566       9.22701576      -6.04725986
O        7.19321761       7.29823464      -3.80100596
H        6.56015700       6.73992439      -4.20133887
H        7.11414012       8.15417328      -4.27363292
O        3.83577940       1.78813133      -9.06883411
H        4.53247690       1.32915811      -8.51485276
H        3.49007109       1.14218766      -9.67998028
O        5.41832971       4.07076363      -9.29354261
H        5.48908171       4.86701095      -8.71798047
H        4.68397254       3.57778432      -8.93660697
O        5.43789885       9.40228872      -2.55111439
H        5.53478981       8.57938118      -3.03901209
H        6.35730989       9.67858848      -2.30146709
O       -0.45742934       2.92384837       4.23795020
H       -0.65542588       3.78038584       3.80834483
H       -0.37808374       2.22326659       3.64590428
O       11.29795954      -2.96162904       4.75239636
H       11.63370731      -2.27574515       5.29218659
H       11.98621823      -3.65051989       4.71422796
O        4.99707156      -1.79914799      -5.28772929
H        4.51880831      -2.52931828      -4.83665169
H        4.55020604      -1.70717848      -6.16555670
O        2.45689908       4.45686228      -2.67399317
H        1.51398216       4.27108297      -2.80060549
H        2.66694593       3.70962297      -2.01741030
O        3.73283820      -4.15860576       2.96998886
H        4.08732955      -3.25525927       3.11614931
H        3.82660862      -4.19314289       2.00934888
O        3.79953928       3.53561128      -5.00221400
H        3.17434628       3.25755097      -5.65336138
H        3.29406548       3.75250667      -4.22005070
O        2.15476289       2.61062944      -7.02913464
H        2.47557818       2.36463061      -7.99045139
H        1.25468277       2.75698642      -7.25518955
O        4.88286219       6.36826713      -5.16303301
H        4.34394281       7.02331963      -4.75813168
H        4.30506585       5.73206177      -5.44919722
O        7.54258972      -1.74845549      -1.20128842
H        7.58173346      -0.96340903      -1.81213879
H        8.41599553      -1.70098336      -0.75529423
O        8.66587253       3.99443202      -4.83379584
H        9.05848307       4.73782323      -5.32398176
H        9.08641306       3.24755764      -5.24853036
O       15.39832523      -0.98662008      -7.24558405
H       14.81412921      -0.61721460      -7.92182780
H       14.88249533      -0.75285373      -6.45380899
O        8.73211726       0.85742774       4.18921288
H        8.71727739       1.55957315       3.54206134
H        8.81252752       0.01593544       3.72986823
O        3.32413086       8.59329072      -4.72268559
H        2.51972443       8.61143412      -4.19067201
H        3.00530797       8.60420808      -5.62979986
O        9.88683349       6.02693741       5.99064857
H       10.66843185       6.47446641       6.38238368
H        9.45847853       6.79275119       5.61687708
O        5.48734339      -1.80547540       3.21362128
H        5.37614757      -1.28745938       4.05714107
H        5.55205282      -1.14821437       2.49504858
O       -0.17451136       1.95380021      -0.42983176
H        0.74756628       2.13576872      -0.57275419
H       -0.83764648       2.59865739      -0.79248245
O       12.26425852       4.05272251      -3.21409599
H       12.35662902       3.10992710      -3.53322869
H       11.49147736       4.13940388      -2.66280329
O       -0.98576882      10.01726713      -3.28890861
H       -1.54050933       9.23169822      -3.08255339
H       -1.55693518      10.58711799      -3.82222753
O       10.32526061       7.73843560      -0.33229257
H       10.23281998       7.39655498      -1.22803525
H        9.60467759       7.22752309       0.25198323
O        0.09191373       6.28553276      -5.26909244
H        0.30345729       5.42888899      -4.86584086
H        0.24416340       6.99184601      -4.61102483
O       -2.18445141      11.11099414       2.66233241
H       -1.77931618      10.42404589       3.27279560
H       -2.45449419      10.70582712       1.83155514
O       11.83691986      11.62521338       6.29252911
H       10.90703270      11.66245027       6.65664727
H       11.98152631      12.58003326       6.01283684
O        9.76700302       7.21345169      -3.05782750
H        8.81888709       7.11975811      -3.43799470
H       10.29610713       6.47686190      -3.37256470
O        2.22433993       8.82465394       5.46407496
H        2.53017747       9.68322136       5.08696224
H        2.62159591       8.18963464       4.84191210
O        2.58549224      10.22788385      -2.23574588
H        3.28576690       9.54599998      -2.29861530
H        2.05697668      10.04802514      -1.46372318
O        1.28564872      10.23409319       0.08375371
H        0.51315024      10.65646336      -0.17658479
H        0.89435872       9.38464929       0.35596781
O        6.46338348       4.56083691      -3.42884523
H        7.25243635       4.40444161      -3.91165357
H        5.65045951       4.36919349      -3.97438205
O        5.12851460       6.42128330       4.49193755
H        5.20109935       6.63813806       5.44949628
H        4.39732180       7.02007805       4.19101922
O        0.31002319       7.34990480       3.60793458
H        1.09376589       7.03127626       4.00071569
H       -0.23051772       6.49087082       3.49320068
O        7.85467960       2.94434063      -1.52839549
H        7.18762033       3.47881011      -2.01180042
H        7.32398761       2.43871845      -0.89548889
O        7.99176053       6.67379648       0.76234189
H        7.36968188       6.48516030       0.02147414
H        7.39906311       7.03701090       1.43547078
O       10.45810792       4.19159838      -1.06465671
H        9.71439511       3.54579561      -1.27241836
H       10.25866575       4.52896421      -0.14439244
O        2.16580171       7.02507248      -1.05936971
H        1.56300413       7.11891493      -0.25941855
H        2.07623629       6.16423927      -1.48299475
O        4.68508075       3.85099647       0.53238242
H        5.13098521       4.42762464      -0.12485212
H        5.02723072       4.13401269       1.40990289
O        7.41492214       0.57564648      -2.89288637
H        7.63746561       1.40778149      -2.49914757
H        6.59782147       0.64798185      -3.36395253
O        1.71626830      11.66007035      -4.47546514
H        0.99756996      11.32581387      -5.05282264
H        2.00055363      10.90357627      -3.92540839
O        4.85017126       1.03969846      -4.52787580
H        4.08444178       1.63223795      -4.64862906
H        4.50350826       0.17230808      -4.81974036
O        9.41760438      -0.98890426       7.68151902
H        8.76346603      -1.69362425       7.48031621
H        9.01846782      -0.30634124       8.18571242
O       10.17759636       1.75304672       6.41252838
H       10.73383750       2.36059625       5.95314219
H        9.67149853       1.27545072       5.73203121
O        4.28513592       8.22630015       0.13948157
H        4.92185001       8.72436720      -0.37998991
H        3.61827294       8.05475284      -0.47628170
O        3.86459479       0.29107940      -1.75734214
H        3.35482860      -0.52822670      -1.97160082
H        4.17943753       0.58968815      -2.64543229
O        6.90060092       8.00151268       3.01115132
H        6.30143375       7.46163097       3.57494518
H        6.55125677       8.87622169       3.02492108
