54
Lattice="100 0 0 0 100 0 0 0 100" Properties=species:S:1:pos:R:3 pbc="T T T"
C        0.00000000       0.00000000       0.00000000
C        0.89175000       0.89175000       0.89175000
C        1.78350000       1.78350000       0.00000000
C        2.67525000       2.67525000       0.89175000
C        3.56700000       3.56700000       0.00000000
C        4.45875000       4.45875000       0.89175000
C        1.78350000       0.00000000       1.78350000
C        2.67525000       0.89175000       2.67525000
C        3.56700000       1.78350000       1.78350000
C        4.45875000       2.67525000       2.67525000
C        5.35050000       3.56700000       1.78350000
C        6.24225000       4.45875000       2.67525000
C        3.56700000       0.00000000       3.56700000
C        4.45875000       0.89175000       4.45875000
C        5.35050000       1.78350000       3.56700000
C        6.24225000       2.67525000       4.45875000
C        7.13400000       3.56700000       3.56700000
C        8.02575000       4.45875000       4.45875000
C        0.00000000       1.78350000       1.78350000
C        0.89175000       2.67525000       2.67525000
C        1.78350000       3.56700000       1.78350000
C        2.67525000       4.45875000       2.67525000
C        3.56700000       5.35050000       1.78350000
C        4.45875000       6.24225000       2.67525000
C        1.78350000       1.78350000       3.56700000
C        2.67525000       2.67525000       4.45875000
C        3.56700000       3.56700000       3.56700000
C        4.45875000       4.45875000       4.45875000
C        5.35050000       5.35050000       3.56700000
C        6.24225000       6.24225000       4.45875000
C        3.56700000       1.78350000       5.35050000
C        4.45875000       2.67525000       6.24225000
C        5.35050000       3.56700000       5.35050000
C        6.24225000       4.45875000       6.24225000
C        7.13400000       5.35050000       5.35050000
C        8.02575000       6.24225000       6.24225000
C        0.00000000       3.56700000       3.56700000
C        0.89175000       4.45875000       4.45875000
C        1.78350000       5.35050000       3.56700000
C        2.67525000       6.24225000       4.45875000
C        3.56700000       7.13400000       3.56700000
C        4.45875000       8.02575000       4.45875000
C        1.78350000       3.56700000       5.35050000
C        2.67525000       4.45875000       6.24225000
C        3.56700000       5.35050000       5.35050000
C        4.45875000       6.24225000       6.24225000
C        5.35050000       7.13400000       5.35050000
C        6.24225000       8.02575000       6.24225000
C        3.56700000       3.56700000       7.13400000
C        4.45875000       4.45875000       8.02575000
C        5.35050000       5.35050000       7.13400000
C        6.24225000       6.24225000       8.02575000
C        7.13400000       7.13400000       7.13400000
C        8.02575000       8.02575000       8.02575000
